powerflow/Codes/PF_Formulation/resultados_csv/500bus__18_csca_ctap__bus.csv
ID_Barra,Tipo_Barra,Vm_pu,Va_graus,Pg_pu,Qg_pu,Pd_pu,Qd_pu,Slack_QLIM,Slack_VLIM
1,1,1.013091240277458,-8.588853787941199,0.0,0.0,0.0,0.0,0.0,-3.3393520308752616e-5
2,1,1.012512278905106,-8.660530118913822,0.0,0.0,0.428,0.11410000000000001,0.0,-3.341700886675296e-5
3,1,1.0056934945443383,-9.892542177472208,0.0,0.0,0.0,0.0,0.0,-0.00014602633930824605
4,1,1.003528724914967,-10.143706949729449,0.0,0.0,1.327,0.3538,0.0,-0.0001464029264064174
5,1,1.0146353383462297,0.909175850234715,0.0,0.0,0.0,0.0,0.0,-2.636927999940864e-7
6,1,1.0145876333648625,0.9030693809774605,0.0,0.0,0.03213,0.00857,0.0,-2.6367437135317595e-7
7,1,1.03799461117045,-4.780817822653594,0.0,0.0,0.0,0.0,0.0,-5.023075352189673e-5
8,1,1.0288084344906139,-6.548093439916983,0.0,0.0,0.0,0.0,0.0,-0.00011566619415206457
9,2,1.04766861698934,-2.015614673111531,7.718,1.6062122027010497,0.0,0.0,0.0,0.0
10,1,1.0167854253030904,-11.854576716880318,0.0,0.0,0.0,0.0,0.0,-8.804490839579518e-5
11,1,1.016749029146373,-11.858725859565656,0.0,0.0,0.02472,0.00659,0.0,-8.804852305260688e-5
12,1,0.9923992334448181,-12.725917220949315,0.0,0.0,0.0,0.0,0.0,9.2322351358211e-6
13,1,0.9918519944529677,-12.790114460184213,0.0,0.0,0.3716,0.09910000000000001,0.0,9.238582978371686e-6
14,1,1.0304302722486718,-2.479997491845917,0.0,0.0,0.0,0.0,0.0,4.721972704107984e-6
15,1,1.021967596472979,-4.871137845188003,0.0,0.0,0.0,0.0,0.0,4.0636558178334015e-6
16,2,1.0395941549290497,0.3645974181823894,4.444,0.7818946223635176,0.0,0.0,0.0,0.0
17,3,1.0393219977883186,0.0,6.473310550034924,1.282422631843208,0.0,0.0,0.0,0.0
18,2,1.0399044063306724,1.8186306188975043,1.5759999999999998,0.20787938309330461,0.0,0.0,0.0,0.0
19,1,1.018762472203929,-12.158565869260773,0.0,0.0,0.0,0.0,0.0,-3.8200274185478745e-5
20,1,1.0186922804414562,-12.167949109606077,0.0,0.0,0.045419999999999995,0.012110000000000001,0.0,-3.820382996234875e-5
21,1,1.0105950879043402,-10.177985739782336,0.0,0.0,0.0,0.0,0.0,-4.531341330765883e-5
22,1,1.0084716863414003,-10.430237028156004,0.0,0.0,1.4869999999999999,0.39649999999999996,0.0,-4.543055314159767e-5
23,1,1.0268375238771048,-5.869244730358718,0.0,0.0,0.0,0.0,0.0,-2.946180546663566e-5
24,1,1.0117578396292666,-8.547421289653174,0.0,0.0,0.0,0.0,0.0,-3.5440753181479e-5
25,1,1.0117222848955578,-8.551850817063645,0.0,0.0,0.02283,0.00609,0.0,-3.544229894613297e-5
26,1,1.0114240976370499,-8.590829645394976,0.0,0.0,0.21660000000000001,0.05777,0.0,-3.545592857187793e-5
27,1,1.0126138320058546,-14.112070571007592,0.0,0.0,0.0,0.0,0.0,-3.464043917254541e-13
28,1,1.011526471714226,-14.245128062136658,0.0,0.0,0.6293,0.1678,0.0,1.3146037793994142e-9
29,1,1.0085423085888396,-12.417560324449074,0.0,0.0,0.0,0.0,0.0,-0.00017590748728367928
30,1,1.0070529658871172,-12.594317494977583,0.0,0.0,0.9997,0.2666,0.0,-0.00017622717299260808
31,1,1.0324413050038115,-14.906968869180348,0.0,0.0,0.0,0.0,0.0,-1.8011005414059324e-11
32,1,1.0322956153776388,-14.924095553418939,0.0,0.0,0.09765,0.02604,0.0,-1.064898927660478e-10
33,1,1.006555261125045,-13.14562708579733,0.0,0.0,0.0,0.0,0.0,-6.750533580959694e-5
34,1,1.0061825028500035,-13.189715444004314,0.0,0.0,0.25,0.06666,0.0,-6.753564867713666e-5
35,1,1.0181906236090326,-13.736787094170985,0.0,0.0,0.0,0.0,0.0,-2.4750743139879993e-6
36,1,1.0175973123460846,-13.805698284992438,0.0,0.0,0.4335,0.11560000000000001,0.0,-2.4770685659691304e-6
37,1,1.019795410008324,1.2841869451898607,0.0,0.0,0.0,0.0,0.0,-4.06575774185803e-6
38,1,1.0197934602646759,1.2839253526998986,0.0,0.0,0.0012900000000000001,0.00034,0.0,-4.065766291477151e-6
39,1,1.0295917239532684,-5.672801592966836,0.0,0.0,0.0,0.0,0.0,-1.8689007900691017e-5
40,1,1.0231477508944276,-6.864778685176096,0.0,0.0,0.0,0.0,0.0,-1.8959756631311515e-5
41,1,1.022194254584163,-6.984050643971651,0.0,0.0,0.5799,0.15460000000000002,0.0,-1.8981950283955617e-5
42,1,1.025233899334287,-11.449077513701189,0.0,0.0,0.0,0.0,0.0,-6.041450503813176e-7
43,1,1.025174121998957,-11.45631084445666,0.0,0.0,0.044610000000000004,0.011899999999999999,0.0,-6.042048200781054e-7
44,1,1.019509991023287,-7.603261639496254,0.0,0.0,0.0,0.0,0.0,-3.622418449006586e-5
45,1,1.0194768370519889,-7.607412762023549,0.0,0.0,0.02031,0.00542,0.0,-3.622564275484007e-5
46,1,0.998120856451764,-11.063295141429936,0.0,0.0,0.0,0.0,0.0,-0.00014172854972866304
47,1,0.9974572324964073,-11.14557872718169,0.0,0.0,0.4341,0.1158,0.0,-0.00014184605497977667
48,1,1.00149984321242,-15.948127123649208,0.0,0.0,0.0,0.0,0.0,8.399945378792078e-7
49,2,1.002996978929399,-15.74523316370412,0.013000000000000001,0.004792628268629832,0.0,0.0,0.0,0.0
50,2,1.0029948564552138,-15.708861244434635,0.026000000000000002,0.008084795817353373,0.0,0.0,0.0,0.0
51,1,1.0014940681996134,-15.94883436669623,0.0,0.0,0.0035399999999999997,0.00094,0.0,8.400026522042923e-7
52,1,1.0011464929006328,-15.990590834060653,0.0,0.0,0.2339,0.06237,0.0,8.404909649447304e-7
53,1,1.0144421542471258,-11.074271514323055,0.0,0.0,0.0,0.0,0.0,-0.00020563642625869664
54,1,1.0139284190683318,-11.130121377590998,0.0,0.0,0.3481,0.09282,0.0,-0.00020575398114504307
55,1,1.0224082209802183,-10.845689732355332,0.0,0.0,0.0,0.0,0.0,4.37437388548147e-6
56,1,1.0223746210636164,-10.84956609927004,0.0,0.0,0.02253,0.00601,0.0,4.374543994945399e-6
57,1,1.0112381952160272,-7.902098529035372,0.0,0.0,0.0,0.0,0.0,1.5182622013943895e-5
58,1,1.002641039828634,-10.539869218281089,0.0,0.0,0.0,0.0,0.0,1.1559478662984766e-5
59,1,1.0003079166855449,-10.836317760329214,0.0,0.0,1.409,0.37579999999999997,0.0,1.159528892555475e-5
60,1,1.0196291958759698,-7.3998258378823225,0.0,0.0,0.0,0.0,0.0,-1.9342524325792265e-5
61,1,1.0196263415013034,-7.400206170398206,0.0,0.0,0.0020399999999999997,0.00054,0.0,-1.9342592682335764e-5
62,1,1.008989813746072,-9.73111653768315,0.0,0.0,0.0,0.0,0.0,-0.0001893418297330371
63,2,1.008989813746072,-9.73111653768315,0.0,0.0,0.0,0.0,0.0,0.0
64,1,1.0084607529480303,-9.791787559870423,0.0,0.0,0.3478,0.09273999999999999,0.0,-0.00018945772300636655
65,1,1.0263738972796936,-8.705959003413545,0.0,0.0,0.0,0.0,0.0,7.493941642264089e-6
66,1,1.0233446475254744,-10.209000354555416,0.0,0.0,0.0,0.0,0.0,5.664326048019248e-6
67,1,1.0232751097903874,-10.216955667725994,0.0,0.0,0.04569,0.01218,0.0,5.664780152728738e-6
68,1,1.0113884324221485,-10.924933336895322,0.0,0.0,0.0,0.0,0.0,2.074850388772088e-5
69,1,1.0110971100025916,-10.961230572108049,0.0,0.0,0.1696,0.04523,0.0,2.0756336181830206e-5
70,1,0.9952614682596055,-13.021741874197955,0.0,0.0,0.0,0.0,0.0,9.431840199153472e-7
71,2,0.995978972531125,-12.919246033397686,0.04,0.015094034992615541,0.0,0.0,0.0,0.0
72,2,0.9959935172360417,-12.855127464728742,0.02,0.004660640023453896,0.0,0.0,0.0,0.0
73,2,0.9969060974541779,-12.804951562165428,0.013999999999999999,0.005379991624078959,0.0,0.0,0.0,0.0
74,1,1.0251699521846844,-14.750681380787203,0.0,0.0,0.0,0.0,0.0,-1.003461906223026e-5
75,1,1.0250936918806908,-14.759881685235065,0.0,0.0,0.05301,0.01414,0.0,-1.003559413797261e-5
76,1,1.0182175696613853,2.166973980354492,0.0,0.0,0.0,0.0,0.0,-3.6068183434074466e-6
77,1,1.0181097838876476,2.154959278897049,0.0,0.0,0.06951,0.01854,0.0,-3.607140891034938e-6
78,1,1.0133567655837288,-7.1585739489648,0.0,0.0,0.0,0.0,0.0,5.979860646681906e-6
79,1,1.013351106433139,-7.159235273433924,0.0,0.0,0.00381,0.0010199999999999999,0.0,5.979901794889073e-6
80,1,1.032470981959044,-8.15027900560216,0.0,0.0,0.0,0.0,0.0,3.3590485640701834e-6
81,1,1.0274811780759805,-10.604469634163133,0.0,0.0,0.0,0.0,0.0,7.497610040851909e-7
82,2,1.039887812298377,-2.1360376839630675,3.6189999999999998,0.387600975649842,0.0,0.0,0.0,0.0
83,1,1.0045380472651348,-13.58999969116062,0.0,0.0,0.0,0.0,0.0,-7.727584327553277e-5
84,1,1.0035492955580756,-13.71164242516698,0.0,0.0,0.6141,0.1638,0.0,-7.737139349389028e-5
85,1,1.0263252793098647,-13.731244904468632,0.0,0.0,0.0,0.0,0.0,-1.309124537020394e-5
86,1,1.0260349449783401,-13.76691652174419,0.0,0.0,0.1759,0.04691,0.0,-1.3096086868369678e-5
87,1,1.0012672529594127,2.9921230159000265,0.0,0.0,0.0,0.0,0.0,-1.3800379448606828e-6
88,1,1.0011846438013272,2.9819071354203186,0.0,0.0,0.05253,0.01401,0.0,-1.3801110933258026e-6
89,1,1.0182349948951595,-8.957133728307317,0.0,0.0,0.0,0.0,0.0,-0.00014086796360845283
90,1,1.0181436564751116,-8.969257705446951,0.0,0.0,0.05901,0.01574,0.0,-0.00014088454191033567
91,1,1.0123610072636162,-6.39994005016983,0.0,0.0,0.0,0.0,0.0,4.31807190000255e-6
92,1,1.0113707732428483,-6.526025045583979,0.0,0.0,0.6503,0.1734,0.0,4.323605003940359e-6
93,1,1.0162202215879155,-4.226455530316587,0.0,0.0,0.0,0.0,0.0,-1.5971935337600087e-5
94,1,1.016147869478349,-4.2355360078084,0.0,0.0,0.052140000000000006,0.0139,0.0,-1.5973312680975975e-5
95,1,1.0127891874381125,-6.322471011235326,0.0,0.0,0.0,0.0,0.0,4.725990266656512e-6
96,1,1.0123082770405754,-6.381436855777104,0.0,0.0,0.34,0.09066,0.0,4.728822064124403e-6
97,1,1.0046665486335329,-16.55126568610325,0.0,0.0,0.0,0.0,0.0,1.366856247306169e-7
98,1,1.004062775420341,-16.632042097118337,0.0,0.0,0.3709,0.09891,0.0,1.3702063514054076e-7
99,1,1.0228811062318088,-6.910190509963856,0.0,0.0,0.0,0.0,0.0,5.347933215143156e-6
100,1,1.022668139628207,-6.935726778436249,0.0,0.0,0.1352,0.03606,0.0,5.349322058428434e-6
101,1,1.022867331220568,-6.911706323538122,0.0,0.0,0.00891,0.0023799999999999997,0.0,5.34801720914021e-6
102,1,1.0046083236528525,-14.537983874802862,0.0,0.0,0.0,0.0,0.0,2.5870048512380276e-6
103,1,1.0039706273397269,-14.619761632224302,0.0,0.0,0.38799999999999996,0.1035,0.0,2.589250560192091e-6
104,1,1.0187524247582087,-15.296971636867257,0.0,0.0,0.0,0.0,0.0,-2.2435768951017114e-6
105,1,1.017427863027722,-15.455570904806855,0.0,0.0,0.8033,0.21420000000000003,0.0,-2.2479120733751117e-6
106,1,1.0208244537683122,-12.633302619978098,0.0,0.0,0.0,0.0,0.0,-1.572450018266467e-5
107,1,1.0206002278999795,-12.660166847977958,0.0,0.0,0.16,0.042679999999999996,0.0,-1.572883856682778e-5
108,1,1.0154265152072808,-7.8917602747956215,0.0,0.0,0.0,0.0,0.0,-1.3094676157267184e-5
109,1,1.014740785821872,-7.9667432027149925,0.0,0.0,0.4758,0.12689999999999999,0.0,-1.3104519505833307e-5
110,1,1.027101977094055,-2.7452013848955725,0.0,0.0,0.0,0.0,0.0,-2.470352379626394e-10
111,1,1.0261796869815947,-2.8660127879860187,0.0,0.0,0.6229,0.1661,0.0,3.397017262580459e-10
112,1,1.0145913661502013,-11.6252930574922,0.0,0.0,0.0,0.0,0.0,-5.387691998508563e-5
113,1,1.0139211729841935,-11.700797561063006,0.0,0.0,0.45990000000000003,0.1226,0.0,-5.391870887159975e-5
114,1,1.0196634622565897,-14.13605989858119,0.0,0.0,0.0,0.0,0.0,-2.837624766498353e-6
115,1,1.0195938389830763,-14.145056090740049,0.0,0.0,0.05061,0.013500000000000002,0.0,-2.837906580832154e-6
116,1,1.0196204894458045,-14.14165470890546,0.0,0.0,0.030990000000000004,0.00826,0.0,-2.837799327666056e-6
117,1,1.0043194534614297,-12.086053832237242,0.0,0.0,0.0,0.0,0.0,3.629515096101008e-7
118,1,1.0041733411443345,-12.104528844480374,0.0,0.0,0.08832000000000001,0.02355,0.0,3.630886445886524e-7
119,1,0.9874731110948176,-13.07012903681287,0.0,0.0,0.0,0.0,0.0,7.2462397061005996e-6
120,1,0.9870327581373421,-13.124283730806482,0.0,0.0,0.3165,0.08439999999999999,0.0,7.250381860598986e-6
121,1,1.009903435885784,-11.792542337466271,0.0,0.0,0.0,0.0,0.0,-0.0002495690909619728
122,1,1.0090666353424844,-11.903507265270852,0.0,0.0,0.5336,0.1423,0.0,-0.00024984549174084195
123,1,1.0307678570471424,-2.1865252824536734,0.0,0.0,0.0,0.0,0.0,9.341541342875838e-6
124,1,1.028596167658407,-2.876291878453581,0.0,0.0,0.0,0.0,0.0,7.812701522928916e-6
125,2,1.0307678570471424,-2.1865252824536734,0.0,0.0,0.0,0.0,0.0,0.0
126,2,1.0307678570471424,-2.1865252824536734,0.0,0.0,0.0,0.0,0.0,0.0
127,2,1.0397984169940504,1.9621538772982676,1.62,0.24171116525419684,0.0,0.0,0.0,0.0
128,2,1.0393921737253784,-0.8180821892385237,1.62,0.5684800148159145,0.0,0.0,0.0,0.0
129,1,0.9846390773060033,-13.798132318639768,0.0,0.0,0.0,0.0,0.0,7.930451714718446e-6
130,1,0.9829990248270045,-13.983529061737926,0.0,0.0,1.032,0.2753,0.0,7.946717307855884e-6
131,1,1.020352095961589,-7.280147084720958,0.0,0.0,0.0,0.0,0.0,-1.9073358294136542e-5
132,1,1.01994723154292,-7.327812991820713,0.0,0.0,0.252,0.06721,0.0,-1.9082322022628325e-5
133,1,1.0135141604798634,-6.30532441297471,0.0,0.0,0.0,0.0,0.0,4.5067468104387094e-6
134,1,1.0129505381595616,-6.375430135592981,0.0,0.0,0.4265,0.1137,0.0,4.509952638054812e-6
135,1,1.014469078012055,-9.14758156526041,0.0,0.0,0.0,0.0,0.0,-0.00019665369506774682
136,1,1.0140669959894275,-9.199961395757223,0.0,0.0,0.2676,0.07135,0.0,-0.0001967550454662214
137,1,1.0065283692551592,-12.185397454942397,0.0,0.0,0.0,0.0,0.0,-1.2080055257880526e-5
138,1,1.0052985183598906,-12.347599896443864,0.0,0.0,0.787,0.20989999999999998,0.0,-1.2099191744857888e-5
139,1,1.016057077264529,-7.871538508830874,0.0,0.0,0.0,0.0,0.0,-1.8651388150105964e-5
140,1,1.0160534996812411,-7.871966820323463,0.0,0.0,0.00255,0.00068,0.0,-1.8651464660522493e-5
141,1,1.0008875080559432,-0.24447316232451832,0.0,0.0,0.0,0.0,0.0,-1.9821839072360554e-6
142,1,0.9982919569372044,-0.5435591336061902,0.0,0.0,1.6130000000000002,0.4302,0.0,-1.9861010355892727e-6
143,1,1.0188802489359385,8.692442901698806,0.0,0.0,0.0,0.0,0.0,-6.110030441652353e-7
144,2,1.0400166888862445,21.223486888234294,6.025,1.1134637952431736,0.0,0.0,0.0,0.0
145,2,1.040037359698816,11.369387189267913,2.9819999999999998,1.2692145244088588,0.0,0.0,0.0,0.0
146,1,1.030229328545533,-5.709996963919975,0.0,0.0,0.0,0.0,0.0,-3.7996861797216516e-5
147,1,1.0183359531703926,-6.371908500030865,0.0,0.0,0.0,0.0,0.0,-3.061538426282527e-5
148,1,1.017407178965814,-6.491847003377039,0.0,0.0,0.5742,0.1531,0.0,-3.06513908825538e-5
149,1,1.0241322882002568,-11.436445971852118,0.0,0.0,0.0,0.0,0.0,4.4450328310068415e-7
150,1,1.024107844777831,-11.43932928516019,0.0,0.0,0.015029999999999998,0.0040100000000000005,0.0,4.445107658891207e-7
151,1,1.027212735438225,-5.94859360102482,0.0,0.0,0.0,0.0,0.0,-3.880385144671289e-5
152,1,1.0189060180754146,-8.335566485304446,0.0,0.0,0.0,0.0,0.0,-0.0001849732343499315
153,1,1.0176585792688801,-8.488505067682746,0.0,0.0,0.9315000000000001,0.2484,0.0,-0.00018525538733981373
154,1,1.0098094112301867,-8.785477363662602,0.0,0.0,0.0,0.0,0.0,-2.9853209854628206e-5
155,1,1.0089241056123675,-8.893099680109302,0.0,0.0,0.6684,0.1782,0.0,-2.988544411914276e-5
156,1,0.9864599940473233,-12.446170981706711,0.0,0.0,0.0,0.0,0.0,-8.255989486238669e-5
157,1,0.9847915730783919,-12.658956609056824,0.0,0.0,1.055,0.2812,0.0,-8.274015338137322e-5
158,1,1.0101848287704631,-11.360475207729053,0.0,0.0,0.0,0.0,0.0,-0.00016037381491443932
159,1,1.009815407743952,-11.408133308815524,0.0,0.0,0.2285,0.06094,0.0,-0.00016044997366219317
160,1,1.0201659336150786,-12.92100189669377,0.0,0.0,0.0,0.0,0.0,3.45976811320914e-7
161,1,1.019782067883108,-12.969874201605059,0.0,0.0,0.2595,0.06921000000000001,0.0,3.460058355876481e-7
162,1,1.0305180098818905,-5.671485746121324,0.0,0.0,0.0,0.0,0.0,-3.9229778621028865e-5
163,1,1.0265973104761676,-6.449455723252794,0.0,0.0,0.0,0.0,0.0,-3.889558539049011e-5
164,1,1.024950419501156,-6.653302855124121,0.0,0.0,0.9815,0.26170000000000004,0.0,-3.897409226265324e-5
165,1,1.0311488825503041,-1.8562413438754481,0.0,0.0,0.0,0.0,0.0,6.713971079420094e-6
166,1,1.0265394085975703,-3.17429702476222,0.0,0.0,0.0,0.0,0.0,5.420916565539328e-6
167,2,1.0396785265579473,0.36490299911691004,1.935,0.40692860134334813,0.0,0.0,0.0,0.0
168,2,1.039804424124354,1.8113697633167072,1.935,0.29965731191447303,0.0,0.0,0.0,0.0
169,2,1.039727850881689,3.432853273107663,3.87,0.4742014961938717,0.0,0.0,0.0,0.0
170,1,1.0123054530182098,-6.464305453324427,0.0,0.0,0.0,0.0,0.0,4.696037242001559e-6
171,1,1.0121195838078143,-6.48948778933088,0.0,0.0,0.12380000000000001,0.033,0.0,4.6972149508932555e-6
172,1,1.005009217386484,-10.799518585411583,0.0,0.0,0.0,0.0,0.0,1.196984631890196e-5
173,1,1.0049620365467655,-10.80477128621469,0.0,0.0,0.031349999999999996,0.00836,0.0,1.1970526618709395e-5
174,1,1.0049076596983606,-10.811464670680582,0.0,0.0,0.07305,0.01948,0.0,1.1971369285354148e-5
175,1,1.0346125908332138,-1.3588830866729882,0.0,0.0,0.0,0.0,0.0,-5.511662776641744e-6
176,1,1.0236116822629828,-0.523058104461391,0.0,0.0,0.0,0.0,0.0,-5.004064793468961e-6
177,1,1.0234803495177711,-0.5398687503707035,0.0,0.0,0.08781,0.02342,0.0,-5.0047790011086645e-6
178,1,1.023510099453886,-0.5341361007896896,0.0,0.0,0.06813,0.01817,0.0,-5.004514655820737e-6
179,1,1.0032733173391324,-12.58650748513888,0.0,0.0,0.0,0.0,0.0,-0.00018178108893878413
180,1,1.0030518724707447,-12.611609793277468,0.0,0.0,0.1414,0.0377,0.0,-0.00018182780645790986
181,1,1.0109768771423238,-16.40689326412451,0.0,0.0,0.0,0.0,0.0,-2.9725827341190935e-13
182,1,1.009645679346739,-16.571370961895056,0.0,0.0,0.8261,0.22030000000000002,0.0,5.220292409844823e-10
183,1,1.0247609244959794,-4.513686668094535,0.0,0.0,0.0,0.0,0.0,-8.865929997210691e-6
184,1,1.0243646650163625,-4.560860424572272,0.0,0.0,0.3018,0.08047,0.0,-8.869859953036147e-6
185,1,1.009637910707307,-7.994051746686571,0.0,0.0,0.0,0.0,0.0,2.9614648243008058e-6
186,1,1.0090172208403725,-8.068424192061526,0.0,0.0,0.4535,0.1209,0.0,2.963788158359794e-6
187,1,1.0174323152288023,-9.343041053519832,0.0,0.0,0.0,0.0,0.0,-0.00014183551312080392
188,1,1.0172688731768402,-9.361190939930227,0.0,0.0,0.1105,0.02946,0.0,-0.00014186130596584236
189,1,1.0278829451035207,-15.033198222159255,0.0,0.0,0.0,0.0,0.0,-5.04167455040503e-6
190,1,1.0276785864354319,-15.054767864830824,0.0,0.0,0.1407,0.03752,0.0,-5.042942279896757e-6
191,1,1.0202980983348364,-13.59976066471904,0.0,0.0,0.0,0.0,0.0,-4.219920714944768e-6
192,1,1.0200259797895619,-13.632174875940233,0.0,0.0,0.16440000000000002,0.043840000000000004,0.0,-4.221415291393053e-6
193,1,1.015760516178394,-12.112873429611197,0.0,0.0,0.0,0.0,0.0,-4.5105695414444734e-5
194,1,1.0152770191474885,-12.170521490881,0.0,0.0,0.2869,0.07652,0.0,-4.513218738349192e-5
195,1,1.030536691280019,-5.701235617534064,0.0,0.0,0.0,0.0,0.0,-3.72571733074456e-5
196,1,1.0209983341233198,-7.955936087755233,0.0,0.0,0.0,0.0,0.0,-4.086001686225228e-5
197,2,1.0412442780663254,-0.8460979372925371,2.9360000000000004,0.4267511317575532,0.0,0.0,0.0,0.0
198,2,1.0417601076353529,-3.294327727099403,2.073,0.5418240360404661,0.0,0.0,0.0,0.0
199,1,1.0196592792131285,-8.104631642424755,0.0,0.0,0.8639,0.2304,0.0,-4.092139395580421e-5
200,1,1.021959193654584,-7.2054223040304715,0.0,0.0,0.0,0.0,0.0,-3.729635096891035e-5
201,1,1.0218259786667092,-7.2200126790489705,0.0,0.0,0.08889,0.023700000000000002,0.0,-3.730173755877496e-5
202,1,1.0025661696174788,-10.211540084942609,0.0,0.0,0.0,0.0,0.0,1.9175465957333778e-5
203,1,1.0024908810742899,-10.22075090742914,0.0,0.0,0.04689,0.0125,0.0,1.917730288307187e-5
204,1,1.001839660284841,-10.309020946646344,0.0,0.0,0.4567,0.12179999999999999,0.0,1.919460427209269e-5
205,1,1.0220876482893784,-14.532418361355111,0.0,0.0,0.0,0.0,0.0,-2.0730466860210514e-6
206,1,1.022047567399805,-14.537172087255168,0.0,0.0,0.03009,0.008020000000000001,0.0,-2.0731660391179926e-6
207,1,1.0217250753054268,-14.57608403614782,0.0,0.0,0.2257,0.06019,0.0,-2.0741378488474127e-6
208,1,1.0066927661977862,-14.343709217875167,0.0,0.0,0.0,0.0,0.0,-1.0586880421352974e-11
209,1,1.0054888929653447,-14.504214951740805,0.0,0.0,0.8186,0.2183,0.0,8.736055659784462e-10
210,1,1.0019175334413077,-9.955974771945627,0.0,0.0,0.0,0.0,0.0,-4.6508404321224554e-5
211,1,1.0013392366098677,-10.02649152321291,0.0,0.0,0.3428,0.09141,0.0,-4.654150471159047e-5
212,1,1.0203342120249514,-12.74106765396415,0.0,0.0,0.0,0.0,0.0,5.045495835665781e-7
213,1,1.0187874560486487,-12.930080127739535,0.0,0.0,0.9748,0.26,0.0,5.049273722193963e-7
214,1,1.0036894025144356,-13.00055258500489,0.0,0.0,0.0,0.0,0.0,-3.715443965895455e-5
215,1,1.0023402067731366,-13.17659681363071,0.0,0.0,0.8448,0.2253,0.0,-3.721973637363753e-5
216,1,0.9912224338893879,-13.364652375716313,0.0,0.0,0.0,0.0,0.0,4.146944975910402e-6
217,1,0.9904231083501925,-13.460138720962423,0.0,0.0,0.551,0.1469,0.0,4.1514558163395855e-6
218,1,1.026737478663038,-13.480876949895398,0.0,0.0,0.0,0.0,0.0,6.164413250963149e-8
219,1,1.0267324248994236,-13.48151082725187,0.0,0.0,0.00333,0.00089,0.0,6.164230416200084e-8
220,1,1.0365690540077337,-1.7067627281358873,0.0,0.0,0.0,0.0,0.0,-5.729124482639327e-6
221,1,1.021468846143216,-4.818153188000946,0.0,0.0,0.0,0.0,0.0,1.4217792145130169e-5
222,2,1.0365380266209754,-1.6449986186915164,0.052000000000000005,-0.0025499318934363874,0.0,0.0,0.0,0.0
223,2,1.038193974935811,-1.4149146518863156,0.18,0.052172307083976396,0.0,0.0,0.0,0.0
224,2,1.0404954496327572,1.5543023491785302,5.112,0.38168535394926906,0.0,0.0,0.0,0.0
225,2,1.0409572052091043,-0.012491137431674376,5.148,0.7369217553654362,0.0,0.0,0.0,0.0
226,1,1.0127620286464605,-6.473230118252392,0.0,0.0,0.0,0.0,0.0,4.620053553720931e-6
227,1,1.012678488741889,-6.482834097309244,0.0,0.0,0.054240000000000003,0.014459999999999999,0.0,4.620509074689487e-6
228,1,1.0085280193116521,-7.139553469127458,0.0,0.0,0.0,0.0,0.0,1.6472564604388306e-7
229,1,1.007696247509163,-7.24421127966405,0.0,0.0,0.5409,0.1442,0.0,1.649604436278776e-7
230,1,1.0110261197017707,-11.413265812311307,0.0,0.0,0.0,0.0,0.0,1.5076251542129919e-6
231,2,1.01299192445879,-11.10907906086608,0.028999999999999998,0.010060167810236857,0.0,0.0,0.0,0.0
232,1,1.0309168411442668,-6.58049412818022,0.0,0.0,0.0,0.0,0.0,-6.0056079903353955e-5
233,1,1.0184072817371925,-9.902605791967009,0.0,0.0,0.0,0.0,0.0,-0.0001476522465265533
234,1,1.0175446031874285,-10.010945482117537,0.0,0.0,0.5996,0.15990000000000001,0.0,-0.0001478118432783388
235,1,1.0300551725132396,-10.49344031293569,0.0,0.0,0.0,0.0,0.0,-1.0603954131643279e-5
236,1,1.0228089980976014,-11.703612310951932,0.0,0.0,0.0,0.0,0.0,-2.37169063191055e-5
237,1,1.0227669370200478,-11.708310982928884,0.0,0.0,0.027120000000000002,0.0072299999999999994,0.0,-2.3718048201396595e-5
238,1,1.0084853392237556,-9.696267307363128,0.0,0.0,0.0,0.0,0.0,-0.00016811546084238182
239,1,1.0079111861902967,-9.773067244020696,0.0,0.0,0.39130000000000004,0.10439999999999999,0.0,-0.00016824287765064073
240,1,1.023299195549292,-14.41824068936179,0.0,0.0,0.0,0.0,0.0,-1.3800206130942944e-5
241,1,1.0229897643770587,-14.459718951033368,0.0,0.0,0.1974,0.05264,0.0,-1.3806036256580616e-5
242,1,1.0037743185052637,-13.732613703956416,0.0,0.0,0.0,0.0,0.0,-0.0007851367670669503
243,1,1.0025903306369823,-13.882764172262256,0.0,0.0,0.7447,0.1986,0.0,-0.0007863259139825261
244,1,1.0078949574563965,-11.088473861558683,0.0,0.0,0.0,0.0,0.0,6.177388304760572e-6
245,1,1.0077259066428699,-11.108465836137162,0.0,0.0,0.1184,0.031560000000000005,0.0,6.17874246135624e-6
246,1,1.0316076410514161,-5.438054935978542,0.0,0.0,0.0,0.0,0.0,-2.3482475025925973e-5
247,1,1.0260348099889065,-4.722105600669318,0.0,0.0,0.0,0.0,0.0,-1.2061668581225403e-5
248,2,1.0316076410514161,-5.438054935978542,0.0,0.0,0.0,0.0,0.0,0.0
249,2,1.0316076410514161,-5.438054935978542,0.0,0.0,0.0,0.0,0.0,0.0
250,2,1.0316076410514161,-5.438054935978542,0.0,0.0,0.0,0.0,0.0,0.0
251,1,0.9905878299030225,-11.912394542475017,0.0,0.0,0.0,0.0,0.0,-1.8588185552517516e-5
252,1,0.9885475976933423,-12.168456038831495,0.0,0.0,1.187,0.3165,0.0,-1.8636929875574583e-5
253,1,0.9910782931861997,-12.32924256614784,0.0,0.0,0.0,0.0,0.0,6.759217157655513e-6
254,2,0.9910782931861997,-12.32924256614784,0.0,0.0,0.0,0.0,0.0,0.0
255,2,0.9910782931861997,-12.32924256614784,0.0,0.0,0.0,0.0,0.0,0.0
256,2,0.9910782931861997,-12.32924256614784,0.0,0.0,0.0,0.0,0.0,0.0
257,2,0.9910782931861997,-12.32924256614784,0.0,0.0,0.0,0.0,0.0,0.0
258,2,0.9919741616406453,-12.16467869156308,0.011000000000000001,0.0030463321414332203,0.0,0.0,0.0,0.0
259,1,0.9909459535951275,-12.34545157977609,0.0,0.0,0.0816,0.02176,0.0,6.7603596834136884e-6
260,1,1.0269798295327042,-3.1183498293774536,0.0,0.0,0.0,0.0,0.0,6.608861593411047e-6
261,1,1.0267143004907302,-3.1504525110647226,0.0,0.0,0.1868,0.04982,0.0,6.610963537280589e-6
262,1,1.0300857361263471,-6.854839608010353,0.0,0.0,0.0,0.0,0.0,-7.34756429551709e-5
263,1,1.019879775646697,-11.07959824601593,0.0,0.0,0.0,0.0,0.0,-0.00021026450298279923
264,2,1.0300857361263471,-6.854839608010353,0.0,0.0,0.0,0.0,0.0,0.0
265,2,1.0300857361263471,-6.854839608010353,0.0,0.0,0.0,0.0,0.0,0.0
266,1,1.018981817357301,-11.190421505452004,0.0,0.0,0.6178,0.1648,0.0,-0.00021049869614789952
267,1,1.0160570840868937,-16.097997807238443,0.0,0.0,0.0,0.0,0.0,-6.306974689024923e-7
268,1,1.0143685746919608,-16.32197328478075,0.0,0.0,1.171,0.3124,0.0,-6.329304324500265e-7
269,1,1.0165807012156043,-5.083678595424141,0.0,0.0,0.0,0.0,0.0,-2.126091811728678e-5
270,1,1.016471407215505,-5.098098152427222,0.0,0.0,0.06801,0.01814,0.0,-2.1263858568779527e-5
271,1,1.0294184742986234,-10.681106023812255,0.0,0.0,0.0,0.0,0.0,-1.1884793630921765e-5
272,1,1.0239607615428559,-12.406675500219636,0.0,0.0,0.0,0.0,0.0,-2.358230907378435e-5
273,1,1.0238093651098272,-12.426628814719386,0.0,0.0,0.09492,0.025310000000000003,0.0,-2.3587020994760556e-5
274,1,1.0260795094786148,-3.5583742516757737,0.0,0.0,0.0,0.0,0.0,-2.8258137311166996e-6
275,2,1.0260795094786148,-3.5583742516757737,0.0,0.0,0.0,0.0,0.0,0.0
276,1,1.0137974596332806,-11.585470572924118,0.0,0.0,0.0,0.0,0.0,-0.00024360420091569046
277,1,1.0137922850626286,-11.586272349892216,0.0,0.0,0.004050000000000001,0.00108,0.0,-0.0002436056861974409
278,1,1.013709832606258,-11.597407119902599,0.0,0.0,0.05769,0.01538,0.0,-0.00024363244318103587
279,1,1.0044242924324438,-8.758275333912373,0.0,0.0,0.0,0.0,0.0,-5.3435687823127724e-6
280,1,1.0041689853468487,-8.786153533832099,0.0,0.0,0.16940000000000002,0.04518,0.0,-5.345056636878151e-6
281,1,0.9942027543198335,-14.680169007524423,0.0,0.0,0.0,0.0,0.0,3.467457658377474e-6
282,1,0.992417263893445,-14.916757637398577,0.0,0.0,1.173,0.3128,0.0,3.4765927839240224e-6
283,1,1.0172881717120335,-12.164111015680644,0.0,0.0,0.0,0.0,0.0,-3.3886721745430044e-5
284,1,1.0167388632749728,-12.23313649750508,0.0,0.0,0.3265,0.08706,0.0,-3.391037409415365e-5
285,1,1.0094905351791499,-13.119223698501534,0.0,0.0,0.0,0.0,0.0,1.0420954372083091e-6
286,1,1.0093645050152034,-13.133579577422852,0.0,0.0,0.08268,0.02205,0.0,1.0422915136965397e-6
287,1,1.0117475891359264,-10.383372040759532,0.0,0.0,0.0,0.0,0.0,-0.00026107507723177343
288,1,1.0108697721891915,-10.503273107755675,0.0,0.0,0.5811,0.155,0.0,-0.00026138449097517634
289,1,1.02048793619903,-4.506994354871176,0.0,0.0,0.0,0.0,0.0,3.3839187328322976e-6
290,1,1.0204315869703744,-4.514428971870745,0.0,0.0,0.0369,0.00984,0.0,3.3841671992795758e-6
291,1,1.00665237746353,-12.039175247901282,0.0,0.0,0.0,0.0,0.0,-0.00017047382680419263
292,1,1.0065438790678858,-12.052387120937635,0.0,0.0,0.07617,0.02031,0.0,-0.0001704963991450544
293,1,1.0203952082695058,-12.741367453229689,0.0,0.0,0.0,0.0,0.0,-1.7144312502353544e-6
294,1,1.0200126658330146,-12.785329107389993,0.0,0.0,0.2561,0.06828000000000001,0.0,-1.7153202944814921e-6
295,1,1.0128245202763422,-9.406526337117054,0.0,0.0,0.0,0.0,0.0,2.926130962408544e-5
296,1,1.0127131280383475,-9.420846333840563,0.0,0.0,0.07788,0.02077,0.0,2.9265559890819368e-5
297,1,1.0192610851781112,-8.59048752054113,0.0,0.0,0.0,0.0,0.0,1.2275223416369386e-5
298,1,1.0157346938917629,-10.01350456731952,0.0,0.0,0.0,0.0,0.0,6.156503289555959e-6
299,1,1.0155180309989642,-10.04174995405942,0.0,0.0,0.1457,0.038849999999999996,0.0,6.158294367906702e-6
300,1,1.0055652316214783,-2.436194372843357,0.0,0.0,0.0,0.0,0.0,-1.7466076737244953e-11
301,2,1.006723648264823,-2.3046918591509766,0.028999999999999998,0.013509989600859433,0.0,0.0,0.0,0.0
302,2,1.0067198362097067,-2.3104169882524865,0.028999999999999998,0.01350998912938835,0.0,0.0,0.0,0.0
303,1,1.004080767978903,-2.624493459827372,0.0,0.0,0.8676,0.2314,0.0,1.0130828592413566e-9
304,1,0.9857627752659996,-13.684193760880712,0.0,0.0,0.0,0.0,0.0,8.14686289066202e-6
305,2,0.9879850047160895,-13.373447039545862,0.01,0.0037379008764866963,0.0,0.0,0.0,0.0
306,2,0.9879678610502582,-13.33386299049561,0.024,0.00828856863976752,0.0,0.0,0.0,0.0
307,1,0.98462306843578,-13.833247867082571,0.0,0.0,0.7604000000000001,0.2028,0.0,8.1597165687799e-6
308,1,1.014918750445295,-12.343612035285812,0.0,0.0,0.0,0.0,0.0,3.7033625149373137e-6
309,1,1.0147653434450599,-12.36280204964343,0.0,0.0,0.09029999999999999,0.02408,0.0,3.704081735147112e-6
310,1,1.001831866954032,-15.675298777479277,0.0,0.0,0.0,0.0,0.0,-4.147925975900886e-11
311,1,1.0011417294000062,-15.760981779313342,0.0,0.0,0.43829999999999997,0.11689999999999999,0.0,3.0829926109176056e-10
312,1,1.01964454670203,-14.48964570259783,0.0,0.0,0.0,0.0,0.0,-1.1866237501429988e-6
313,1,1.0194366966888873,-14.515737742165916,0.0,0.0,0.1244,0.033170000000000005,0.0,-1.1870264700116439e-6
314,1,1.0118940395489275,-10.37908489724121,0.0,0.0,0.0,0.0,0.0,2.3826189878344793e-5
315,1,1.0118881684259706,-10.379799216586065,0.0,0.0,0.00426,0.00114,0.0,2.382636982902248e-5
316,1,1.0192509356010329,-0.6484710935436088,0.0,0.0,0.0,0.0,0.0,-1.5626498267218858e-7
317,1,1.019196304629571,-0.6544043901280909,0.0,0.0,0.03753,0.010009999999999998,0.0,-1.5622754735870669e-7
318,1,1.0220712040466713,-1.5096750567560075,0.0,0.0,0.0,0.0,0.0,-5.571357692727749e-6
319,2,1.0340751657823368,0.21627375791597336,0.423,0.16108516081916952,0.0,0.0,0.0,0.0
320,1,0.9999053732071164,-13.929762068769051,0.0,0.0,0.0,0.0,0.0,-0.0005290701112701456
321,1,0.9974951204685087,-14.228001006840454,0.0,0.0,1.504,0.4011,0.0,-0.0005307001899057414
322,1,0.9975169315381738,-12.27936346710019,0.0,0.0,0.0,0.0,0.0,8.461467154787087e-6
323,1,0.9968406218766124,-12.35589092341379,0.0,0.0,0.45270000000000005,0.1207,0.0,8.46851741815603e-6
324,1,0.9884524966416793,-13.427891349502667,0.0,0.0,0.0,0.0,0.0,8.26120662902268e-6
325,1,0.9868446103265306,-13.644878332816239,0.0,0.0,1.035,0.2759,0.0,8.280082604721481e-6
326,1,1.0117231229410186,-12.777293641223913,0.0,0.0,0.0,0.0,0.0,-0.00022726361181561337
327,1,1.0100122187298137,-12.98379096587543,0.0,0.0,1.2109999999999999,0.32280000000000003,0.0,-0.00022774560296988903
328,1,0.9992431524715024,-11.398924368087718,0.0,0.0,0.0,0.0,0.0,4.741240177048994e-6
329,1,0.9988878627244051,-11.442035273427749,0.0,0.0,0.2602,0.06938,0.0,4.743435667318289e-6
330,1,1.0152727417206022,-7.975037921449604,0.0,0.0,0.0,0.0,0.0,-1.804555824888768e-5
331,1,1.0143656208249738,-8.093665808323086,0.0,0.0,0.5717,0.1525,0.0,-1.8066616500671856e-5
332,1,1.0294037168763637,-5.599231201450611,0.0,0.0,0.0,0.0,0.0,-1.974459238898966e-5
333,1,1.0207173282674888,-7.183994979228398,0.0,0.0,0.0,0.0,0.0,-1.8793729662161175e-5
334,1,1.020709941081097,-7.184827398030223,0.0,0.0,0.00501,0.00134,0.0,-1.8793882374572942e-5
335,1,1.0207045459474078,-7.185548130342948,0.0,0.0,0.00834,0.00222,0.0,-1.8794012343429823e-5
336,1,1.0163387418243885,-2.8045755287491128,0.0,0.0,0.0,0.0,0.0,-8.080939931774607e-6
337,1,1.0162492110606693,-2.8163893041559938,0.0,0.0,0.05673,0.01513,0.0,-8.08180834726737e-6
338,1,1.0112428120425212,7.394659546595374,0.0,0.0,0.0,0.0,0.0,-6.13788609574684e-7
339,1,1.010104830498044,7.248024857641919,0.0,0.0,0.7511,0.2003,0.0,-6.137850859042094e-7
340,1,1.0030374376525104,-9.439409624625851,0.0,0.0,0.0,0.0,0.0,-1.1008955070125191e-5
341,1,1.002640016703687,-9.490227059271593,0.0,0.0,0.2422,0.06459,0.0,-1.1014484290896978e-5
342,1,1.0115763927274197,-12.600106870940445,0.0,0.0,0.0,0.0,0.0,-8.376802086581441e-5
343,1,1.0115383695512619,-12.604994313631584,0.0,0.0,0.02511,0.0067,0.0,-8.377203245758422e-5
344,1,1.0115381501027552,-12.60517622193163,0.0,0.0,0.024300000000000002,0.0064800000000000005,0.0,-8.37721586905457e-5
345,1,1.0004515222098245,-12.796262891546027,0.0,0.0,0.0,0.0,0.0,-0.00020835279362184554
346,1,0.9997818370019638,-12.879063365646967,0.0,0.0,0.4758,0.12689999999999999,0.0,-0.00020852807997070522
347,1,0.9879562431727547,-12.688247425736538,0.0,0.0,0.0,0.0,0.0,2.577585109278786e-6
348,1,0.9867178062695089,-12.838798469003883,0.0,0.0,0.8640000000000001,0.2304,0.0,2.5818387187035227e-6
349,1,1.0194652523779146,-11.469082338306611,0.0,0.0,0.0,0.0,0.0,-9.01116470195662e-5
350,2,1.0238365479575613,-10.888055028716247,0.15,0.05760000549106599,0.0,0.0,0.0,0.0
351,2,1.0215375840657763,-11.203851728390603,0.062,0.0238100063809956,0.0,0.0,0.0,0.0
352,2,1.0237400376226145,-10.908262496321173,0.14400000000000002,0.05530000577905716,0.0,0.0,0.0,0.0
353,2,1.0398607438324603,-8.621737332184953,0.74,0.28420000529905703,0.0,0.0,0.0,0.0
354,1,1.0225634631523968,-7.028578609323216,0.0,0.0,0.0,0.0,0.0,-2.674563814995821e-5
355,1,1.022233053674788,-7.067708340458582,0.0,0.0,0.1996,0.053239999999999996,0.0,-2.6755627040878548e-5
356,1,1.0040137883151579,-14.955780158767752,0.0,0.0,0.0,0.0,0.0,4.209947573254156e-9
357,1,1.003198074431605,-15.059685095072478,0.0,0.0,0.5573,0.14859999999999998,0.0,4.953540161568514e-9
358,1,1.002484414250252,-16.169853167211922,0.0,0.0,0.0,0.0,0.0,2.528653438602497e-7
359,1,1.0022506847335466,-16.19754041519992,0.0,0.0,0.1459,0.038900000000000004,0.0,2.5304518128176736e-7
360,1,1.0018736591947803,-10.123926561794878,0.0,0.0,0.0,0.0,0.0,-3.0602267403828595e-5
361,2,1.0018736591947803,-10.123926561794878,0.0,0.0,0.0,0.0,0.0,0.0
362,2,1.0018736591947803,-10.123926561794878,0.0,0.0,0.0,0.0,0.0,0.0
363,2,1.0018736591947803,-10.123926561794878,0.0,0.0,0.0,0.0,0.0,0.0
364,1,1.001428789623307,-10.183395998534635,0.0,0.0,0.3044,0.08117,0.0,-3.0620276542491646e-5
365,1,1.0074575223048743,-12.03116875864431,0.0,0.0,0.0,0.0,0.0,-0.0001567247978255644
366,1,1.0065664797024523,-12.1515389425141,0.0,0.0,0.5649000000000001,0.1506,0.0,-0.00015691317026782938
367,1,1.014983713786341,-6.3414123754965,0.0,0.0,0.0,0.0,0.0,2.451409561216939e-6
368,1,1.0148286299301679,-6.361006826562601,0.0,0.0,0.11449999999999999,0.030539999999999998,0.0,2.451900348257525e-6
369,1,1.018414824273241,-5.32470679095157,0.0,0.0,0.0,0.0,0.0,4.747163994526164e-6
370,1,1.0179295534158654,-5.381994996882148,0.0,0.0,0.35600000000000004,0.09494,0.0,4.749926973289585e-6
371,1,1.0296884056646023,-6.425420891868424,0.0,0.0,0.0,0.0,0.0,-4.850985088227834e-5
372,1,1.0197888627323564,-10.00470967922376,0.0,0.0,0.0,0.0,0.0,-5.224752018146248e-5
373,1,1.0193842552872356,-10.052807467808028,0.0,0.0,0.2884,0.07690000000000001,0.0,-5.2272771752911845e-5
374,1,1.0043842403957337,-12.482253473290475,0.0,0.0,0.0,0.0,0.0,-0.00016782092526115567
375,1,1.0040630677947842,-12.522701347694115,0.0,0.0,0.2477,0.06604,0.0,-0.00016788922107672732
376,1,1.0079080794948472,-9.035245193417436,0.0,0.0,0.0,0.0,0.0,-1.650853392708164e-5
377,1,1.0066501731526962,-9.199652152410145,0.0,0.0,0.9039,0.24100000000000002,0.0,-1.6535457404751933e-5
378,1,1.0204884753708061,-1.842408778091369,0.0,0.0,0.0,0.0,0.0,-6.086730370918248e-6
379,1,1.0202837104928144,-1.8686295244015396,0.0,0.0,0.1301,0.0347,0.0,-6.088132799305775e-6
380,1,1.0090477102188309,-8.008566871390428,0.0,0.0,0.0,0.0,0.0,2.8391706411739945e-5
381,1,1.0088983004535308,-8.028231205181225,0.0,0.0,0.1013,0.02702,0.0,2.8397334483373466e-5
382,1,1.0065246904877838,-14.796796115395058,0.0,0.0,0.0,0.0,0.0,2.8246040941893725e-10
383,1,1.0060795208445759,-14.854902885504426,0.0,0.0,0.2995,0.07986,0.0,7.205057761909413e-10
384,1,0.9949417605924298,-13.19928925719287,0.0,0.0,0.0,0.0,0.0,8.300028713501759e-6
385,1,0.9944227127489413,-13.262836231360525,0.0,0.0,0.36619999999999997,0.09766,0.0,8.305631497519872e-6
386,1,1.0272127673288232,-3.5241324022928926,0.0,0.0,0.0,0.0,0.0,7.460103449806982e-6
387,1,1.0211369492592257,-5.269835959853831,0.0,0.0,0.0,0.0,0.0,6.4853979281199635e-6
388,2,1.0272127673288232,-3.5241324022928926,0.0,0.0,0.0,0.0,0.0,0.0
389,2,1.0272127673288232,-3.5241324022928926,0.0,0.0,0.0,0.0,0.0,0.0
390,2,1.0272127673288232,-3.5241324022928926,0.0,0.0,0.0,0.0,0.0,0.0
391,2,1.0272127673288232,-3.5241324022928926,0.0,0.0,0.0,0.0,0.0,0.0
392,2,1.0272127673288232,-3.5241324022928926,0.0,0.0,0.0,0.0,0.0,0.0
393,2,1.0272127673288232,-3.5241324022928926,0.0,0.0,0.0,0.0,0.0,0.0
394,2,1.0272127673288232,-3.5241324022928926,0.0,0.0,0.0,0.0,0.0,0.0
395,2,1.0272127673288232,-3.5241324022928926,0.0,0.0,0.0,0.0,0.0,0.0
396,2,1.0272127673288232,-3.5241324022928926,0.0,0.0,0.0,0.0,0.0,0.0
397,1,1.020590618087916,-5.339306190365562,0.0,0.0,0.3995,0.1065,0.0,6.489917456389161e-6
398,1,1.0208871201621994,-5.296758670694942,0.0,0.0,0.1677,0.04471,0.0,6.487197537164012e-6
399,1,1.0230422444856586,-12.677352548330923,0.0,0.0,0.0,0.0,0.0,1.0899523810090179e-7
400,1,1.0226474475835716,-12.72501908282493,0.0,0.0,0.2302,0.061399999999999996,0.0,1.0888949206671379e-7
401,1,1.0077804825311145,4.143903210341174,0.0,0.0,0.0,0.0,0.0,-4.664960746546918e-7
402,1,1.0064579772977325,3.965442605206829,0.0,0.0,0.8835,0.23559999999999998,0.0,-4.663834757887648e-7
403,1,1.0123775185366004,-12.217401118642764,0.0,0.0,0.0,0.0,0.0,-7.011974735633949e-5
404,1,1.012076680049162,-12.25390904122839,0.0,0.0,0.1977,0.05272,0.0,-7.014521298501058e-5
405,1,1.0048539158158238,-3.076261944775994,0.0,0.0,0.0,0.0,0.0,-1.9762926501112356e-6
406,1,1.0047739397479563,-3.0863781397410075,0.0,0.0,0.0525,0.013999999999999999,0.0,-1.976432676352127e-6
407,1,1.034520963224027,-9.05267646086525,0.0,0.0,0.0,0.0,0.0,2.094569870649444e-6
408,1,1.028099682057088,-11.161431692608527,0.0,0.0,0.0,0.0,0.0,1.0196011686777635e-6
409,2,1.034520963224027,-9.05267646086525,0.0,0.0,0.0,0.0,0.0,0.0
410,2,1.0399483335566833,-7.27903459577963,0.7943000000000001,0.14165255264536467,0.0,0.0,0.0,0.0
411,2,1.0399077240332275,-8.060969530990691,0.7943000000000001,0.23992296203349053,0.0,0.0,0.0,0.0
412,2,1.0399195047555445,-7.915631354236698,0.7943000000000001,0.2104354673563735,0.0,0.0,0.0,0.0
413,2,1.0399462747466897,-7.73263513561283,0.616,0.13831983959190602,0.0,0.0,0.0,0.0
414,2,1.034520963224027,-9.05267646086525,0.0,0.0,0.0,0.0,0.0,0.0
415,1,1.0072016525380778,-11.369050178651879,0.0,0.0,0.0,0.0,0.0,-0.0002416699942631807
416,1,1.0071090695724123,-11.381702179373878,0.0,0.0,0.060629999999999996,0.01617,0.0,-0.00024169973447926428
417,1,0.9981155390058205,-10.941085580732368,0.0,0.0,0.0,0.0,0.0,-6.1691314474670304e-6
418,1,0.997101786062437,-11.06356535987259,0.0,0.0,0.6362,0.1696,0.0,-6.17670966424195e-6
419,1,1.003039523289671,-15.21504525122224,0.0,0.0,0.0,0.0,0.0,1.8242959565290227e-6
420,1,1.002957890986982,-15.225768239258858,0.0,0.0,0.05226,0.01394,0.0,1.8245112510641192e-6
421,1,1.0139592669867443,-8.404597684947307,0.0,0.0,0.0,0.0,0.0,-3.0080232603480842e-5
422,1,1.0132516157356648,-8.485184942937334,0.0,0.0,0.4918,0.1311,0.0,-3.0104008747140485e-5
423,1,0.9973077740708373,3.348482427264096,0.0,0.0,0.0,0.0,0.0,-1.1388402538739404e-6
424,1,0.994584471178561,3.0143847255481995,0.0,0.0,1.571,0.4189,0.0,-1.140414490019127e-6
425,1,1.0183067881869448,-8.873204015025744,0.0,0.0,0.0,0.0,0.0,1.0929580212554329e-5
426,1,1.0121040604383136,-11.176167433406167,0.0,0.0,0.0,0.0,0.0,-6.128532159053453e-12
427,1,1.0118924254435,-11.199144783097472,0.0,0.0,0.14429999999999998,0.03849,0.0,1.0623482991094285e-10
428,1,1.0310291512146443,-5.438799591989003,0.0,0.0,0.0,0.0,0.0,-1.7353893591157444e-5
429,1,1.020623427063152,-7.238792686965992,0.0,0.0,0.0,0.0,0.0,-1.980282006946869e-5
430,2,1.031276860523058,-5.4047989806112,0.01,0.0038370431811681057,0.0,0.0,0.0,0.0
431,2,1.0314877208496196,-5.374230506441155,0.033,0.012657001256584229,0.0,0.0,0.0,0.0
432,2,1.0311737037042656,-5.418324090357115,0.012,0.004609972115420334,0.0,0.0,0.0,0.0
433,2,1.0331966730357538,-5.111979073246333,0.067,0.024216379835718345,0.0,0.0,0.0,0.0
434,2,1.031403635371086,-5.3866137417061655,0.043,0.016509956405111773,0.0,0.0,0.0,0.0
435,2,1.0310291512146443,-5.438799591989003,0.0,0.0,0.0,0.0,0.0,0.0
436,2,1.0310291512146443,-5.438799591989003,0.0,0.0,0.0,0.0,0.0,0.0
437,2,1.0409711181156198,-3.503484198525947,1.97,0.5794850857470351,0.0,0.0,0.0,0.0
438,2,1.0407720259789879,-3.007773159823059,1.97,0.43379824521378474,0.0,0.0,0.0,0.0
439,2,1.041232978549363,-3.916729746912983,1.97,0.7415249096097568,0.0,0.0,0.0,0.0
440,1,1.015983367896312,-7.415228428966725,0.0,0.0,0.0,0.0,0.0,2.0688081897200284e-5
441,1,0.9997752394758153,-11.490285653146337,0.0,0.0,0.0,0.0,0.0,1.1955858755147477e-5
442,2,1.015983367896312,-7.415228428966725,0.0,0.0,0.0,0.0,0.0,0.0
443,2,1.015983367896312,-7.415228428966725,0.0,0.0,0.0,0.0,0.0,0.0
444,2,1.015983367896312,-7.415228428966725,0.0,0.0,0.0,0.0,0.0,0.0
445,1,1.0068664297080188,-9.388715719460606,0.0,0.0,0.0,0.0,0.0,-1.4109408795256106e-11
446,1,1.0054199021162722,-9.559258421210611,0.0,0.0,0.8868,0.2365,0.0,2.606537818566335e-10
447,1,1.0124990728892986,-7.862872831407688,0.0,0.0,0.0,0.0,0.0,2.263428849608767e-5
448,1,1.0115850880559005,-7.981624471707213,0.0,0.0,0.5756,0.1535,0.0,2.2661735021313103e-5
449,1,1.0120733189786788,-8.447085701689987,0.0,0.0,0.0,0.0,0.0,-1.6895442979058186e-5
450,1,1.0120577619323865,-8.449087588986046,0.0,0.0,0.01122,0.00299,0.0,-1.689577213599285e-5
451,1,1.0120432897374154,-8.450862227561988,0.0,0.0,0.022109999999999998,0.0059,0.0,-1.6896068297145817e-5
452,1,1.0168663827612887,3.4484190176185883,0.0,0.0,0.1116,0.029769999999999998,0.0,-2.9757064017053717e-6
453,1,1.0330687353804233,-6.717739799721874,0.0,0.0,0.0,0.0,0.0,-4.8250472015315316e-5
454,1,1.0145863633243795,-10.986965522939636,0.0,0.0,0.0,0.0,0.0,-0.0001465872703070542
455,2,1.04308516072095,-6.1521621681337,0.6685,0.639026860979648,0.0,0.0,0.0,0.0
456,2,1.0429895569254117,-5.536737353170942,1.337,0.6220413516307568,0.0,0.0,0.0,0.0
457,1,1.02252237007682,-7.124975647909497,0.0,0.0,0.0,0.0,0.0,-0.00013627075596939973
458,2,1.0217428791327965,-2.7823588059808904,1.0959999999999999,0.0,0.0,0.0,0.0,0.0
459,1,1.0093884513706348,6.920138275701166,0.0,0.0,0.7447,0.1986,0.0,-6.145012900037703e-7
460,1,1.0048762652043177,-9.38295512319855,0.0,0.0,0.2634,0.07025,0.0,-1.4464003304806038e-5
461,1,1.0025035002555989,-9.343044969464446,0.0,0.0,0.9172,0.2446,0.0,8.832126697490165e-7
462,1,1.0214982817376261,-7.470677197587965,0.0,0.0,0.0,0.0,0.0,7.730787465911212e-5
463,2,1.0214982817376261,-7.470677197587965,0.0,0.0,0.0,0.0,0.0,0.0
464,1,1.0285385285694504,-5.705333290306142,0.0,0.0,0.0,0.0,0.0,-1.733400343918688e-5
465,1,1.0245637767429308,-6.730602472121231,0.0,0.0,0.1252,0.03339,0.0,1.890390034954891e-5
466,1,1.018767037622887,-7.524262790072387,0.0,0.0,0.4334,0.11560000000000001,0.0,-1.9627633978486374e-5
467,1,1.0149172926395797,-6.630179619618782,0.0,0.0,0.00807,0.00215,0.0,4.880896593339902e-6
468,1,1.0067606407780816,-8.104045772923417,0.0,0.0,0.03762,0.010029999999999999,0.0,-2.2886320773809977e-6
469,1,0.9918829345132236,-11.602581148620784,0.0,0.0,1.285,0.3427,0.0,-1.1547610985679567e-5
470,1,1.0162502571633139,-6.234021752858708,0.0,0.0,0.42560000000000003,0.11349999999999999,0.0,5.588977033234106e-6
471,1,1.0293659650363158,-5.393699573908967,0.0,0.0,0.0,0.0,0.0,-1.952862288744103e-5
472,1,1.0221750140804253,-6.885914729890247,0.0,0.0,0.4971,0.1326,0.0,-1.143030324157464e-5
473,1,1.0169409412004768,-5.819637102520729,0.0,0.0,0.00999,0.00266,0.0,4.352688644842912e-6
474,1,1.0015924769505737,-9.576426479272312,0.0,0.0,0.0,0.0,0.0,-3.9065410139569924e-6
475,1,1.017601208870871,-5.764216382605421,0.0,0.0,0.0016200000000000001,0.00043,0.0,-2.6195315590978086e-5
476,1,1.0148499522927519,-11.23022425959713,0.0,0.0,0.5986,0.15960000000000002,0.0,-0.0002046787459108119
477,1,1.0165046451684343,-8.610168844643734,0.0,0.0,0.0,0.0,0.0,4.905236231676132e-5
478,1,1.0174470368612054,-4.193357768583332,0.0,0.0,0.0,0.0,0.0,1.0482932698536777e-5
479,1,1.0336162051395956,-5.343490462488681,0.0,0.0,0.0,0.0,0.0,-2.3493495713779893e-5
480,2,1.0403859420017467,-3.4750306465690453,0.56,0.09929712703736147,0.0,0.0,0.0,0.0
481,2,1.040441531865209,-4.0307549572764225,0.45,0.1256469022853762,0.0,0.0,0.0,0.0
482,2,1.0393499576731218,-4.591119681832106,0.45,0.17279997393813895,0.0,0.0,0.0,0.0
483,2,1.0402414895993364,-4.067407608362651,0.24,0.06293191478706835,0.0,0.0,0.0,0.0
484,2,1.0394426459305208,-4.532004119943476,0.28,0.10484981977537042,0.0,0.0,0.0,0.0
485,1,1.0106912273325086,-11.825123120392933,0.0,0.0,0.2788,0.07434,0.0,-0.00017582002220871933
486,1,1.0138460715608884,-10.955833787074644,0.0,0.0,0.6853,0.18280000000000002,0.0,-0.0001755297140354252
487,1,1.0094014085455112,-14.989737678270302,0.0,0.0,0.1167,0.031110000000000002,0.0,4.818441838560067e-7
488,1,0.9901423738607135,-11.79275250674528,0.0,0.0,0.9790000000000001,0.2611,0.0,-6.564286793342385e-5
489,1,1.0233092251163716,-11.433134271588901,0.0,0.0,0.0,0.0,0.0,1.3807097266272775e-6
490,1,0.9977959794651238,-12.821902667190928,0.0,0.0,0.2981,0.0795,0.0,7.043174035445127e-7
491,1,1.014531641312292,-12.883679841365762,0.0,0.0,1.195,0.3187,0.0,-0.0002395810521949279
492,1,1.0044045483995718,-3.773799462235623,0.0,0.0,0.5954,0.1588,0.0,-4.5060847561316045e-6
493,1,1.0147943411677407,-6.441332374421027,0.0,0.0,0.04047,0.01079,0.0,3.413636818765567e-5
494,2,1.0147943411677407,-6.441332374421027,0.0,0.0,0.0,0.0,0.0,0.0
495,1,1.0095882416311668,-8.80212082137864,0.0,0.0,0.7517,0.2005,0.0,-1.594905933778768e-5
496,1,1.012609530502082,7.18809655771468,0.0,0.0,0.0,0.0,0.0,-6.137515752642883e-7
497,2,1.0270096550102479,9.309038772099333,0.6,0.22595840253094387,0.0,0.0,0.0,0.0
498,2,1.0210053018008465,8.34554326863446,0.18,0.06858341304088639,0.0,0.0,0.0,0.0
499,1,1.0028246817152142,-13.130076272778354,0.0,0.0,1.2229999999999999,0.3262,0.0,-0.0001284076100185349
500,1,1.0212949515554952,-11.423549220720286,0.0,0.0,0.0,0.0,0.0,3.101333168917379e-6
